<?xml version="1.0" encoding="UTF-8"?>

<!-- generated on Mon Aug  5 10:33:30 2019 by Eclipse SUMO netconvert Version 1.1.0
<configuration xmlns:xsi="http://www.w3.org/2001/XMLSchema-instance" xsi:noNamespaceSchemaLocation="http://sumo.dlr.de/xsd/netconvertConfiguration.xsd">

    <input>
        <osm-files value="map.osm.xml"/>
    </input>

    <output>
        <output-file value="map.net.xml"/>
    </output>

    <projection>
        <proj.utm value="true"/>
    </projection>

    <edge_removal>
        <remove-edges.by-vclass value="rail,rail_electric,bicycle,tram,rail_urban,bus,pedestrian"/>
    </edge_removal>

    <junctions>
        <no-turnarounds value="true"/>
        <junctions.join value="true"/>
    </junctions>

    <formats>
        <osm.elevation value="true"/>
    </formats>

</configuration>
-->

<net version="1.1" junctionCornerDetail="5" limitTurnSpeed="5.50" xmlns:xsi="http://www.w3.org/2001/XMLSchema-instance" xsi:noNamespaceSchemaLocation="http://sumo.dlr.de/xsd/net_file.xsd">

    <location netOffset="-583606.85,-4507438.35" convBoundary="0.00,0.00,2832.96,3712.93" origBoundary="-74.012390,40.710904,-73.968457,40.766480" projParameter="+proj=utm +zone=18 +ellps=WGS84 +datum=WGS84 +units=m +no_defs"/>

    <type id="highway.bridleway" priority="1" numLanes="1" speed="2.78" allow="pedestrian" oneway="1" width="2.00"/>
    <type id="highway.bus_guideway" priority="1" numLanes="1" speed="27.78" allow="bus" oneway="1"/>
    <type id="highway.cycleway" priority="1" numLanes="1" speed="8.33" allow="bicycle" oneway="0" width="1.00"/>
    <type id="highway.footway" priority="1" numLanes="1" speed="2.78" allow="pedestrian" oneway="1" width="2.00"/>
    <type id="highway.ford" priority="1" numLanes="1" speed="2.78" allow="army" oneway="0"/>
    <type id="highway.living_street" priority="3" numLanes="1" speed="2.78" disallow="tram rail_urban rail rail_electric ship" oneway="0"/>
    <type id="highway.motorway" priority="13" numLanes="2" speed="44.44" allow="private emergency authority army vip passenger hov taxi bus coach delivery truck trailer motorcycle evehicle custom1 custom2" oneway="1"/>
    <type id="highway.motorway_link" priority="12" numLanes="1" speed="22.22" allow="private emergency authority army vip passenger hov taxi bus coach delivery truck trailer motorcycle evehicle custom1 custom2" oneway="1"/>
    <type id="highway.path" priority="1" numLanes="1" speed="2.78" allow="bicycle pedestrian" oneway="1" width="2.00"/>
    <type id="highway.pedestrian" priority="1" numLanes="1" speed="2.78" allow="pedestrian" oneway="1" width="2.00"/>
    <type id="highway.primary" priority="9" numLanes="2" speed="27.78" disallow="tram rail_urban rail rail_electric ship" oneway="0"/>
    <type id="highway.primary_link" priority="8" numLanes="1" speed="22.22" disallow="tram rail_urban rail rail_electric ship" oneway="0"/>
    <type id="highway.raceway" priority="14" numLanes="2" speed="83.33" allow="vip" oneway="0"/>
    <type id="highway.residential" priority="4" numLanes="1" speed="13.89" disallow="tram rail_urban rail rail_electric ship" oneway="0"/>
    <type id="highway.secondary" priority="7" numLanes="2" speed="27.78" disallow="tram rail_urban rail rail_electric ship" oneway="0"/>
    <type id="highway.secondary_link" priority="6" numLanes="1" speed="22.22" disallow="tram rail_urban rail rail_electric ship" oneway="0"/>
    <type id="highway.service" priority="2" numLanes="1" speed="5.56" allow="delivery bicycle pedestrian" oneway="0"/>
    <type id="highway.stairs" priority="1" numLanes="1" speed="1.39" allow="pedestrian" oneway="1" width="2.00"/>
    <type id="highway.step" priority="1" numLanes="1" speed="1.39" allow="pedestrian" oneway="1" width="2.00"/>
    <type id="highway.steps" priority="1" numLanes="1" speed="1.39" allow="pedestrian" oneway="1" width="2.00"/>
    <type id="highway.tertiary" priority="6" numLanes="1" speed="22.22" disallow="tram rail_urban rail rail_electric ship" oneway="0"/>
    <type id="highway.tertiary_link" priority="5" numLanes="1" speed="22.22" disallow="tram rail_urban rail rail_electric ship" oneway="0"/>
    <type id="highway.track" priority="1" numLanes="1" speed="5.56" disallow="tram rail_urban rail rail_electric ship" oneway="0"/>
    <type id="highway.trunk" priority="11" numLanes="2" speed="27.78" disallow="tram rail_urban rail rail_electric bicycle pedestrian ship" oneway="0"/>
    <type id="highway.trunk_link" priority="10" numLanes="1" speed="22.22" disallow="tram rail_urban rail rail_electric bicycle pedestrian ship" oneway="0"/>
    <type id="highway.unclassified" priority="5" numLanes="1" speed="13.89" disallow="tram rail_urban rail rail_electric ship" oneway="0"/>
    <type id="highway.unsurfaced" priority="1" numLanes="1" speed="8.33" disallow="tram rail_urban rail rail_electric ship" oneway="0"/>
    <type id="railway.light_rail" priority="15" numLanes="1" speed="27.78" allow="rail_urban" oneway="1"/>
    <type id="railway.preserved" priority="15" numLanes="1" speed="27.78" allow="rail" oneway="1"/>
    <type id="railway.rail" priority="15" numLanes="1" speed="83.33" allow="rail rail_electric" oneway="1"/>
    <type id="railway.subway" priority="15" numLanes="1" speed="27.78" allow="rail_urban" oneway="1"/>
    <type id="railway.tram" priority="15" numLanes="1" speed="13.89" allow="tram" oneway="1"/>

    <edge id=":1251605769_0" function="internal">
        <lane id=":1251605769_0_0" index="0" disallow="tram rail_urban rail rail_electric ship" speed="10.37" length="1.13" shape="1621.01,2378.59 1620.59,2378.31 1620.32,2378.10 1620.09,2377.84 1619.78,2377.44"/>
        <lane id=":1251605769_0_1" index="1" disallow="tram rail_urban rail rail_electric ship" speed="11.18" length="1.13" shape="1622.76,2375.91 1622.62,2375.82 1622.53,2375.75 1622.45,2375.66 1622.35,2375.53"/>
    </edge>
    <edge id=":1251830454_0" function="internal">
        <lane id=":1251830454_0_0" index="0" disallow="tram rail_urban rail rail_electric ship" speed="11.18" length="0.10" shape="1955.96,2753.54 1955.96,2753.54"/>
    </edge>
    <edge id=":1251830468_0" function="internal">
        <lane id=":1251830468_0_0" index="0" disallow="tram rail_urban rail rail_electric ship" speed="11.18" length="0.10" shape="2079.61,2688.56 2079.61,2688.56"/>
    </edge>
    <edge id=":1692433911_0" function="internal">
        <lane id=":1692433911_0_0" index="0" disallow="tram rail_urban rail rail_electric ship" speed="6.53" length="8.95" shape="1365.57,1353.60 1367.74,1352.49 1369.05,1350.94 1369.49,1348.96 1369.08,1346.53"/>
    </edge>
    <edge id=":1692433911_1" function="internal">
        <lane id=":1692433911_1_0" index="0" disallow="tram rail_urban rail rail_electric ship" speed="11.18" length="11.05" shape="1365.57,1353.60 1376.02,1350.03"/>
    </edge>
    <edge id=":1692433914_0" function="internal">
        <lane id=":1692433914_0_0" index="0" disallow="tram rail_urban rail rail_electric ship" speed="6.51" length="8.93" shape="1308.54,1367.25 1309.68,1369.41 1311.24,1370.69 1313.22,1371.11 1315.62,1370.65"/>
    </edge>
    <edge id=":1692433914_1" function="internal">
        <lane id=":1692433914_1_0" index="0" disallow="tram rail_urban rail rail_electric ship" speed="11.18" length="10.76" shape="1305.85,1375.09 1308.53,1373.56 1310.58,1372.53 1312.71,1371.67 1315.62,1370.65"/>
    </edge>
    <edge id=":1692433916_0" function="internal">
        <lane id=":1692433916_0_0" index="0" disallow="tram rail_urban rail rail_electric ship" speed="6.49" length="9.03" shape="1293.31,1375.90 1294.83,1377.86 1296.61,1378.85 1298.64,1378.88 1300.94,1377.95"/>
    </edge>
    <edge id=":1692433916_1" function="internal">
        <lane id=":1692433916_1_0" index="0" disallow="tram rail_urban rail rail_electric ship" speed="11.18" length="11.38" shape="1293.31,1375.90 1298.94,1385.79"/>
        <lane id=":1692433916_1_1" index="1" disallow="tram rail_urban rail rail_electric ship" speed="11.18" length="11.38" shape="1290.53,1377.49 1296.16,1387.37"/>
    </edge>
    <edge id=":1692433916_3" function="internal">
        <lane id=":1692433916_3_0" index="0" disallow="tram rail_urban rail rail_electric ship" speed="11.18" length="14.49" shape="1288.56,1385.48 1300.94,1377.95"/>
    </edge>
    <edge id=":1692433916_4" function="internal">
        <lane id=":1692433916_4_0" index="0" disallow="tram rail_urban rail rail_electric ship" speed="6.41" length="9.04" shape="1288.56,1385.48 1290.83,1384.46 1292.86,1384.43 1294.64,1385.40 1296.16,1387.37"/>
    </edge>
    <edge id=":1692433918_0" function="internal">
        <lane id=":1692433918_0_0" index="0" disallow="tram rail_urban rail rail_electric ship" speed="6.49" length="9.03" shape="1255.79,1399.60 1257.38,1401.49 1259.20,1402.41 1261.24,1402.37 1263.50,1401.35"/>
    </edge>
    <edge id=":1692433918_1" function="internal">
        <lane id=":1692433918_1_0" index="0" disallow="tram rail_urban rail rail_electric ship" speed="11.18" length="11.20" shape="1254.04,1407.34 1263.50,1401.35"/>
    </edge>
    <edge id=":1692433919_0" function="internal">
        <lane id=":1692433919_0_0" index="0" disallow="tram rail_urban rail rail_electric ship" speed="11.18" length="7.92" shape="1192.55,1449.05 1188.35,1442.34"/>
        <lane id=":1692433919_0_1" index="1" disallow="tram rail_urban rail rail_electric ship" speed="11.18" length="7.92" shape="1195.26,1447.36 1191.06,1440.64"/>
    </edge>
    <edge id=":1692433919_2" function="internal">
        <lane id=":1692433919_2_0" index="0" disallow="tram rail_urban rail rail_electric ship" speed="5.69" length="6.61" shape="1195.26,1447.36 1195.01,1446.30 1195.51,1445.12 1196.75,1443.81 1198.74,1442.38"/>
    </edge>
    <edge id=":1692433919_3" function="internal">
        <lane id=":1692433919_3_0" index="0" disallow="tram rail_urban rail rail_electric ship" speed="6.52" length="9.04" shape="1186.60,1450.08 1188.48,1448.48 1189.40,1446.65 1189.35,1444.60 1188.35,1442.34"/>
    </edge>
    <edge id=":1692433919_4" function="internal">
        <lane id=":1692433919_4_0" index="0" disallow="tram rail_urban rail rail_electric ship" speed="11.18" length="14.37" shape="1186.60,1450.08 1198.74,1442.38"/>
    </edge>
    <edge id=":1692433920_0" function="internal">
        <lane id=":1692433920_0_0" index="0" disallow="tram rail_urban rail rail_electric ship" speed="11.18" length="11.21" shape="1124.94,1495.90 1118.94,1486.44"/>
        <lane id=":1692433920_0_1" index="1" disallow="tram rail_urban rail rail_electric ship" speed="11.18" length="11.21" shape="1127.65,1494.20 1121.64,1484.72"/>
    </edge>
    <edge id=":1692433920_2" function="internal">
        <lane id=":1692433920_2_0" index="0" disallow="tram rail_urban rail rail_electric ship" speed="6.52" length="9.04" shape="1127.65,1494.20 1126.64,1491.93 1126.59,1489.89 1127.50,1488.06 1129.38,1486.45"/>
    </edge>
    <edge id=":1692433920_3" function="internal">
        <lane id=":1692433920_3_0" index="0" disallow="tram rail_urban rail rail_electric ship" speed="6.50" length="9.03" shape="1117.22,1494.16 1119.10,1492.55 1120.02,1490.73 1119.96,1488.69 1118.94,1486.44"/>
    </edge>
    <edge id=":1692433920_4" function="internal">
        <lane id=":1692433920_4_0" index="0" disallow="tram rail_urban rail rail_electric ship" speed="11.18" length="14.40" shape="1117.22,1494.16 1129.38,1486.45"/>
    </edge>
    <edge id=":1692433923_0" function="internal">
        <lane id=":1692433923_0_0" index="0" allow="delivery bicycle pedestrian" speed="11.18" length="0.31" shape="1077.46,1561.06 1077.30,1560.80"/>
    </edge>
    <edge id=":1692433923_1" function="internal">
        <lane id=":1692433923_1_0" index="0" allow="delivery bicycle pedestrian" speed="11.18" length="0.29" shape="1080.03,1559.12 1080.18,1559.37"/>
    </edge>
    <edge id=":1692433924_0" function="internal">
        <lane id=":1692433924_0_0" index="0" disallow="tram rail_urban rail rail_electric ship" speed="11.18" length="11.30" shape="996.26,1578.00 990.33,1568.38"/>
    </edge>
    <edge id=":1692433924_1" function="internal">
        <lane id=":1692433924_1_0" index="0" disallow="tram rail_urban rail rail_electric ship" speed="7.41" length="11.83" shape="996.26,1578.00 995.44,1575.61 995.91,1573.22 997.68,1570.83 1000.75,1568.44"/>
    </edge>
    <edge id=":1692433924_2" function="internal">
        <lane id=":1692433924_2_0" index="0" disallow="tram rail_urban rail rail_electric ship" speed="6.47" length="9.03" shape="993.05,1566.70 994.65,1568.60 996.46,1569.53 998.49,1569.47 1000.75,1568.44"/>
    </edge>
    <edge id=":1692433924_3" function="internal">
        <lane id=":1692433924_3_0" index="0" allow="delivery bicycle pedestrian" speed="11.18" length="11.32" shape="993.05,1566.70 998.98,1576.33"/>
    </edge>
    <edge id=":1692433924_4" function="internal">
        <lane id=":1692433924_4_0" index="0" disallow="tram rail_urban rail rail_electric ship" speed="6.57" length="9.14" shape="988.57,1576.22 990.46,1574.60 991.38,1572.75 991.34,1570.68 990.33,1568.38"/>
    </edge>
    <edge id=":1692433924_5" function="internal">
        <lane id=":1692433924_5_0" index="0" disallow="tram rail_urban rail rail_electric ship" speed="11.18" length="14.46" shape="988.57,1576.22 1000.75,1568.44"/>
    </edge>
    <edge id=":1692433924_6" function="internal">
        <lane id=":1692433924_6_0" index="0" allow="delivery bicycle pedestrian" speed="7.30" length="7.69" shape="988.57,1576.22 992.01,1574.46 994.90,1573.89 995.74,1574.11"/>
    </edge>
    <edge id=":1692433924_7" function="internal">
        <lane id=":1692433924_7_0" index="0" allow="delivery bicycle pedestrian" speed="7.30" length="4.07" shape="995.74,1574.11 997.22,1574.51 998.98,1576.33"/>
    </edge>
    <edge id=":1692433925_0" function="internal">
        <lane id=":1692433925_0_0" index="0" allow="delivery bicycle pedestrian" speed="11.18" length="0.31" shape="1002.23,1587.73 1002.06,1587.47"/>
    </edge>
    <edge id=":1692433925_1" function="internal">
        <lane id=":1692433925_1_0" index="0" allow="delivery bicycle pedestrian" speed="11.18" length="0.25" shape="1004.79,1585.79 1004.92,1586.01"/>
    </edge>
    <edge id=":1692433926_0" function="internal">
        <lane id=":1692433926_0_0" index="0" allow="delivery bicycle pedestrian" speed="11.18" length="0.29" shape="1011.76,1602.61 1011.60,1602.36"/>
    </edge>
    <edge id=":1692433926_1" function="internal">
        <lane id=":1692433926_1_0" index="0" allow="delivery bicycle pedestrian" speed="11.18" length="0.31" shape="1014.30,1600.64 1014.46,1600.90"/>
    </edge>
    <edge id=":1692433928_0" function="internal">
        <lane id=":1692433928_0_0" index="0" disallow="tram rail_urban rail rail_electric ship" speed="11.18" length="11.25" shape="929.96,1620.04 924.01,1610.50"/>
    </edge>
    <edge id=":1692433928_1" function="internal">
        <lane id=":1692433928_1_0" index="0" disallow="tram rail_urban rail rail_electric ship" speed="7.36" length="4.04" shape="929.96,1620.04 929.14,1617.66 929.43,1616.17"/>
    </edge>
    <edge id=":1692433928_7" function="internal">
        <lane id=":1692433928_7_0" index="0" disallow="tram rail_urban rail rail_electric ship" speed="7.36" length="7.71" shape="929.43,1616.17 929.61,1615.28 931.37,1612.92 934.43,1610.56"/>
    </edge>
    <edge id=":1692433928_2" function="internal">
        <lane id=":1692433928_2_0" index="0" disallow="tram rail_urban rail rail_electric ship" speed="6.49" length="9.03" shape="926.72,1608.81 928.32,1610.70 930.14,1611.63 932.17,1611.58 934.43,1610.56"/>
    </edge>
    <edge id=":1692433928_3" function="internal">
        <lane id=":1692433928_3_0" index="0" disallow="tram rail_urban rail rail_electric ship" speed="11.18" length="11.24" shape="926.72,1608.81 932.68,1618.34"/>
    </edge>
    <edge id=":1692433928_4" function="internal">
        <lane id=":1692433928_4_0" index="0" disallow="tram rail_urban rail rail_electric ship" speed="6.54" length="9.09" shape="922.26,1618.29 924.14,1616.68 925.06,1614.84 925.02,1612.78 924.01,1610.50"/>
    </edge>
    <edge id=":1692433928_5" function="internal">
        <lane id=":1692433928_5_0" index="0" disallow="tram rail_urban rail rail_electric ship" speed="11.18" length="14.42" shape="922.26,1618.29 934.43,1610.56"/>
    </edge>
    <edge id=":1692433928_6" function="internal">
        <lane id=":1692433928_6_0" index="0" disallow="tram rail_urban rail rail_electric ship" speed="7.30" length="11.74" shape="922.26,1618.29 925.71,1616.52 928.59,1615.93 930.92,1616.54 932.68,1618.34"/>
    </edge>
    <edge id=":1692433929_0" function="internal">
        <lane id=":1692433929_0_0" index="0" allow="delivery bicycle pedestrian" speed="11.18" length="0.31" shape="1125.46,1638.12 1125.29,1637.85"/>
    </edge>
    <edge id=":1692433929_1" function="internal">
        <lane id=":1692433929_1_0" index="0" allow="delivery bicycle pedestrian" speed="11.18" length="0.26" shape="1128.01,1636.16 1128.14,1636.38"/>
    </edge>
    <edge id=":1692433930_0" function="internal">
        <lane id=":1692433930_0_0" index="0" allow="delivery bicycle pedestrian" speed="11.18" length="0.29" shape="1134.97,1652.86 1134.82,1652.61"/>
    </edge>
    <edge id=":1692433930_1" function="internal">
        <lane id=":1692433930_1_0" index="0" allow="delivery bicycle pedestrian" speed="11.18" length="0.31" shape="1137.51,1650.88 1137.67,1651.14"/>
    </edge>
    <edge id=":1692433932_0" function="internal">
        <lane id=":1692433932_0_0" index="0" disallow="tram rail_urban rail rail_electric ship" speed="11.18" length="7.75" shape="868.40,1655.04 864.28,1648.48"/>
    </edge>
    <edge id=":1692433932_1" function="internal">
        <lane id=":1692433932_1_0" index="0" disallow="tram rail_urban rail rail_electric ship" speed="5.64" length="6.50" shape="868.40,1655.04 868.19,1654.05 868.72,1652.92 869.98,1651.64 871.97,1650.21"/>
    </edge>
    <edge id=":1692433932_2" function="internal">
        <lane id=":1692433932_2_0" index="0" disallow="tram rail_urban rail rail_electric ship" speed="6.52" length="9.02" shape="862.53,1656.20 864.41,1654.60 865.33,1652.77 865.28,1650.73 864.28,1648.48"/>
    </edge>
    <edge id=":1692433932_3" function="internal">
        <lane id=":1692433932_3_0" index="0" disallow="tram rail_urban rail rail_electric ship" speed="11.18" length="11.18" shape="862.53,1656.20 871.97,1650.21"/>
    </edge>
    <edge id=":1692433933_0" function="internal">
        <lane id=":1692433933_0_0" index="0" allow="delivery bicycle pedestrian" speed="11.18" length="0.29" shape="1061.06,1678.89 1060.90,1678.65"/>
    </edge>
    <edge id=":1692433933_1" function="internal">
        <lane id=":1692433933_1_0" index="0" allow="delivery bicycle pedestrian" speed="11.18" length="0.31" shape="1063.56,1676.86 1063.73,1677.12"/>
    </edge>
    <edge id=":1692433934_0" function="internal">
        <lane id=":1692433934_0_0" index="0" allow="delivery bicycle pedestrian" speed="11.18" length="0.10" shape="1070.46,1693.03 1070.50,1693.10"/>
    </edge>
    <edge id=":1692433934_1" function="internal">
        <lane id=":1692433934_1_0" index="0" allow="delivery bicycle pedestrian" speed="11.18" length="0.10" shape="1073.17,1691.33 1073.22,1691.40"/>
    </edge>
    <edge id=":1692433935_0" function="internal">
        <lane id=":1692433935_0_0" index="0" disallow="tram rail_urban rail rail_electric ship" speed="6.51" length="9.02" shape="799.70,1689.43 801.32,1691.31 803.15,1692.22 805.18,1692.18 807.43,1691.16"/>
    </edge>
    <edge id=":1692433935_1" function="internal">
        <lane id=":1692433935_1_0" index="0" disallow="tram rail_urban rail rail_electric ship" speed="11.18" length="11.18" shape="799.70,1689.43 805.69,1698.88"/>
    </edge>
    <edge id=":1692433935_2" function="internal">
        <lane id=":1692433935_2_0" index="0" disallow="tram rail_urban rail rail_electric ship" speed="11.18" length="11.18" shape="797.97,1697.12 807.43,1691.16"/>
    </edge>
    <edge id=":1692433935_3" function="internal">
        <lane id=":1692433935_3_0" index="0" disallow="tram rail_urban rail rail_electric ship" speed="6.51" length="9.02" shape="797.97,1697.12 800.24,1696.12 802.28,1696.08 804.10,1697.00 805.69,1698.88"/>
    </edge>
    <edge id=":1692433936_0" function="internal">
        <lane id=":1692433936_0_0" index="0" disallow="tram rail_urban rail rail_electric ship" speed="11.18" length="9.40" shape="1088.32,1710.83 1080.36,1715.84"/>
    </edge>
    <edge id=":1692433936_1" function="internal">
        <lane id=":1692433936_1_0" index="0" allow="delivery bicycle pedestrian" speed="6.05" length="7.84" shape="1088.32,1710.83 1085.87,1712.14 1083.88,1712.67 1082.36,1712.43 1081.31,1711.42"/>
    </edge>
    <edge id=":1692433936_2" function="internal">
        <lane id=":1692433936_2_0" index="0" disallow="tram rail_urban rail rail_electric ship" speed="6.16" length="7.80" shape="1084.06,1709.80 1084.43,1711.19 1083.94,1712.66 1082.58,1714.21 1080.36,1715.84"/>
    </edge>
    <edge id=":1692433938_0" function="internal">
        <lane id=":1692433938_0_0" index="0" disallow="tram rail_urban rail rail_electric ship" speed="11.18" length="8.39" shape="739.57,1736.92 735.09,1729.83"/>
    </edge>
    <edge id=":1692433938_1" function="internal">
        <lane id=":1692433938_1_0" index="0" disallow="tram rail_urban rail rail_electric ship" speed="5.77" length="6.91" shape="739.57,1736.92 739.22,1735.70 739.64,1734.41 740.85,1733.04 742.84,1731.59"/>
    </edge>
    <edge id=":1692433938_2" function="internal">
        <lane id=":1692433938_2_0" index="0" disallow="tram rail_urban rail rail_electric ship" speed="6.51" length="9.03" shape="733.35,1737.55 735.23,1735.95 736.15,1734.12 736.10,1732.08 735.09,1729.83"/>
    </edge>
    <edge id=":1692433938_3" function="internal">
        <lane id=":1692433938_3_0" index="0" disallow="tram rail_urban rail rail_electric ship" speed="11.18" length="11.21" shape="733.35,1737.55 742.84,1731.59"/>
    </edge>
    <edge id=":1692433939_0" function="internal">
        <lane id=":1692433939_0_0" index="0" disallow="tram rail_urban rail rail_electric ship" speed="6.49" length="9.03" shape="798.57,1830.52 796.97,1828.63 795.15,1827.71 793.11,1827.76 790.86,1828.78"/>
    </edge>
    <edge id=":1692433939_1" function="internal">
        <lane id=":1692433939_1_0" index="0" disallow="tram rail_urban rail rail_electric ship" speed="11.18" length="11.21" shape="798.57,1830.52 792.61,1821.03"/>
    </edge>
    <edge id=":1692433940_0" function="internal">
        <lane id=":1692433940_0_0" index="0" disallow="tram rail_urban rail rail_electric ship" speed="6.51" length="9.03" shape="829.68,1880.23 828.08,1878.34 826.26,1877.42 824.22,1877.46 821.96,1878.47"/>
    </edge>
    <edge id=":1692433940_1" function="internal">
        <lane id=":1692433940_1_0" index="0" disallow="tram rail_urban rail rail_electric ship" speed="11.18" length="11.21" shape="829.68,1880.23 823.72,1870.74"/>
    </edge>
    <edge id=":1692433940_2" function="internal">
        <lane id=":1692433940_2_0" index="0" disallow="tram rail_urban rail rail_electric ship" speed="11.18" length="11.21" shape="831.44,1872.50 821.96,1878.47"/>
    </edge>
    <edge id=":1692433940_3" function="internal">
        <lane id=":1692433940_3_0" index="0" disallow="tram rail_urban rail rail_electric ship" speed="6.50" length="9.03" shape="831.44,1872.50 829.18,1873.51 827.14,1873.55 825.32,1872.63 823.72,1870.74"/>
    </edge>
    <edge id=":1692433941_0" function="internal">
        <lane id=":1692433941_0_0" index="0" disallow="tram rail_urban rail rail_electric ship" speed="11.18" length="11.21" shape="872.71,1948.64 866.74,1939.16"/>
    </edge>
    <edge id=":1692433941_1" function="internal">
        <lane id=":1692433941_1_0" index="0" disallow="tram rail_urban rail rail_electric ship" speed="6.48" length="8.96" shape="872.71,1948.64 871.69,1946.38 871.63,1944.35 872.53,1942.55 874.39,1940.97"/>
    </edge>
    <edge id=":1692433941_2" function="internal">
        <lane id=":1692433941_2_0" index="0" disallow="tram rail_urban rail rail_electric ship" speed="6.51" length="9.03" shape="864.97,1946.88 866.86,1945.28 867.79,1943.46 867.74,1941.42 866.74,1939.16"/>
    </edge>
    <edge id=":1692433941_3" function="internal">
        <lane id=":1692433941_3_0" index="0" disallow="tram rail_urban rail rail_electric ship" speed="11.18" length="11.12" shape="864.97,1946.88 874.39,1940.97"/>
    </edge>
    <edge id=":1692433942_0" function="internal">
        <lane id=":1692433942_0_0" index="0" disallow="tram rail_urban rail rail_electric ship" speed="11.18" length="11.21" shape="913.96,2013.98 907.99,2004.50"/>
    </edge>
    <edge id=":1692433942_1" function="internal">
        <lane id=":1692433942_1_0" index="0" disallow="tram rail_urban rail rail_electric ship" speed="6.50" length="9.03" shape="906.25,2012.21 908.14,2010.61 909.06,2008.79 909.01,2006.75 907.99,2004.50"/>
    </edge>
    <edge id=":1701921010_0" function="internal">
        <lane id=":1701921010_0_0" index="0" disallow="tram rail_urban rail rail_electric ship" speed="27.78" length="0.33" shape="341.74,2553.77 341.76,2553.82 341.77,2553.85 341.78,2553.88 341.80,2553.93"/>
        <lane id=":1701921010_0_1" index="1" disallow="tram rail_urban rail rail_electric ship" speed="27.78" length="0.33" shape="338.67,2554.66 338.71,2554.80 338.74,2554.90 338.78,2555.00 338.83,2555.13"/>
    </edge>
    <edge id=":1701921025_0" function="internal">
        <lane id=":1701921025_0_0" index="0" disallow="tram rail_urban rail rail_electric ship" speed="11.18" length="0.16" shape="634.68,2793.20 634.64,2793.22 634.61,2793.24 634.59,2793.26 634.54,2793.27"/>
    </edge>
    <edge id=":1773084402_0" function="internal">
        <lane id=":1773084402_0_0" index="0" disallow="tram rail_urban rail rail_electric ship" speed="11.18" length="14.06" shape="1552.53,1522.00 1551.52,1518.00 1550.77,1515.27 1549.89,1512.59 1548.46,1508.71"/>
        <lane id=":1773084402_0_1" index="1" disallow="tram rail_urban rail rail_electric ship" speed="11.18" length="14.06" shape="1555.63,1521.22 1554.60,1517.13 1553.84,1514.34 1552.93,1511.60 1551.48,1507.64"/>
    </edge>
    <edge id=":1773084402_2" function="internal">
        <lane id=":1773084402_2_0" index="0" disallow="tram rail_urban rail rail_electric ship" speed="9.88" length="4.75" shape="1555.63,1521.22 1555.58,1517.73 1556.12,1516.59"/>
    </edge>
    <edge id=":1773084402_9" function="internal">
        <lane id=":1773084402_9_0" index="0" disallow="tram rail_urban rail rail_electric ship" speed="9.88" length="13.12" shape="1556.12,1516.59 1557.20,1514.33 1560.50,1511.01 1565.48,1507.78"/>
    </edge>
    <edge id=":1773084402_3" function="internal">
        <lane id=":1773084402_3_0" index="0" disallow="tram rail_urban rail rail_electric ship" speed="5.73" length="8.86" shape="1559.26,1504.87 1559.87,1507.30 1561.11,1508.60 1562.98,1508.76 1565.48,1507.78"/>
    </edge>
    <edge id=":1773084402_4" function="internal">
        <lane id=":1773084402_4_0" index="0" disallow="tram rail_urban rail rail_electric ship" speed="11.18" length="14.87" shape="1559.26,1504.87 1559.71,1509.31 1560.13,1512.33 1560.76,1515.32 1561.84,1519.65"/>
        <lane id=":1773084402_4_1" index="1" disallow="tram rail_urban rail rail_electric ship" speed="11.18" length="14.87" shape="1556.16,1505.98 1556.61,1510.32 1557.04,1513.28 1557.67,1516.20 1558.73,1520.43"/>
    </edge>
    <edge id=":1773084402_6" function="internal">
        <lane id=":1773084402_6_0" index="0" disallow="tram rail_urban rail rail_electric ship" speed="7.96" length="11.93" shape="1545.75,1519.26 1547.95,1517.34 1549.13,1514.95 1549.31,1512.07 1548.46,1508.71"/>
    </edge>
    <edge id=":1773084402_7" function="internal">
        <lane id=":1773084402_7_0" index="0" disallow="tram rail_urban rail rail_electric ship" speed="11.18" length="22.82" shape="1545.75,1519.26 1565.48,1507.78"/>
    </edge>
    <edge id=":1773084402_8" function="internal">
        <lane id=":1773084402_8_0" index="0" disallow="tram rail_urban rail rail_electric ship" speed="7.62" length="15.74" shape="1545.75,1519.26 1550.68,1516.79 1554.48,1516.16 1557.17,1517.38 1558.73,1520.43"/>
    </edge>
    <edge id=":1773084410_0" function="internal">
        <lane id=":1773084410_0_0" index="0" disallow="tram rail_urban rail rail_electric ship" speed="11.18" length="0.30" shape="1497.57,1266.54 1497.65,1266.83"/>
        <lane id=":1773084410_0_1" index="1" disallow="tram rail_urban rail rail_electric ship" speed="11.18" length="0.30" shape="1494.49,1267.38 1494.57,1267.67"/>
    </edge>
    <edge id=":1773121034_0" function="internal">
        <lane id=":1773121034_0_0" index="0" disallow="tram rail_urban rail rail_electric ship" speed="11.18" length="12.68" shape="1577.80,1596.12 1575.85,1592.81 1574.61,1590.50 1573.53,1588.10 1572.08,1584.55"/>
        <lane id=":1773121034_0_1" index="1" disallow="tram rail_urban rail rail_electric ship" speed="11.18" length="12.68" shape="1580.55,1594.47 1578.67,1591.29 1577.47,1589.07 1576.44,1586.76 1575.04,1583.34"/>
    </edge>
    <edge id=":1773121034_2" function="internal">
        <lane id=":1773121034_2_0" index="0" disallow="tram rail_urban rail rail_electric ship" speed="6.46" length="9.16" shape="1588.24,1583.53 1586.18,1585.06 1585.13,1586.84 1585.08,1588.88 1586.04,1591.18"/>
    </edge>
    <edge id=":1773121034_3" function="internal">
        <lane id=":1773121034_3_0" index="0" disallow="tram rail_urban rail rail_electric ship" speed="7.89" length="14.96" shape="1588.24,1583.53 1583.38,1585.72 1579.57,1586.42 1576.79,1585.62 1575.04,1583.34"/>
    </edge>
    <edge id=":1773121034_4" function="internal">