<?xml version="1.0" encoding="UTF-8"?>

<!-- generated on Mon Aug  5 15:29:13 2019 by Eclipse SUMO polyconvert Version 1.1.0
<configuration xmlns:xsi="http://www.w3.org/2001/XMLSchema-instance" xsi:noNamespaceSchemaLocation="http://sumo.dlr.de/xsd/polyconvertConfiguration.xsd">

    <input>
        <net-file value="map.net.xml"/>
        <osm-files value="map.osm.xml"/>
    </input>

    <output>
        <output-file value="map.poly.xml"/>
    </output>

    <processing>
        <poi-layer-offset value="5"/>
    </processing>

</configuration>
-->

<additional xmlns:xsi="http://www.w3.org/2001/XMLSchema-instance" xsi:noNamespaceSchemaLocation="http://sumo.dlr.de/xsd/additional_file.xsd">
    <location netOffset="-583606.85,-4507438.35" convBoundary="-373.93,-136.42,3463.52,5788.40" origBoundary="-74.014356,40.710904,-73.968457,40.766480" projParameter="+proj=utm +zone=18 +ellps=WGS84 +datum=WGS84 +units=m +no_defs"/>

    <poly id="108156090" type="amenity" color="237,199,199" fill="1" layer="-1.00" shape="838.886323,2128.697958 723.863737,1876.758301 998.645106,1709.193596 932.516993,1603.779615 929.721456,1599.329098 867.498475,1500.144170 1046.091309,1385.364344 1067.284337,1418.513005 1138.390280,1372.141257 1153.818054,1396.087239 1087.489446,1439.049538 1125.187073,1497.955106 1192.895043,1455.475212 1274.355972,1582.538585 1204.361057,1625.646592 1256.073221,1703.320390 1318.219535,1666.284664 1395.093253,1788.634084 1269.128468,1870.235046 1336.424810,1974.044736 1145.571423,2076.131833 1005.031871,2147.145603 950.784278,2060.807112 838.886323,2128.697958"/>
    <poly id="109280428" type="building" color="255,230,230" fill="1" layer="-1.00" shape="1882.118179,3040.041835 1944.038379,3006.572686 1969.851749,2992.770912 1998.233324,3045.412188 1974.959461,3057.955330 1954.879534,3068.870087 1952.602538,3070.076144 1949.611958,3071.651438 1930.011586,3081.994482 1907.270131,3094.521772 1903.616514,3087.696180 1900.640758,3082.132958 1896.656318,3074.704035 1889.799652,3078.355269 1885.016186,3080.898001 1878.830895,3084.179515 1873.970936,3086.765781 1856.347485,3053.833296 1882.118179,3040.041835"/>
    <poly id="109294057" type="tourism" color="207,245,201" fill="1" layer="-2.00" shape="1539.467220,2419.338757 1561.417738,2460.335852 1579.489116,2494.216362 1610.041963,2552.332100 1617.553978,2566.629236 1642.809096,2614.658965 1647.338055,2612.235270 1730.933254,2567.489565 1733.498429,2562.534222 1735.191362,2559.256368 1734.588819,2551.444605 1724.862006,2533.691278 1715.986969,2517.502074 1680.972349,2453.816771 1674.201508,2441.160118 1664.604808,2425.284644 1652.839144,2410.017061 1640.124701,2397.203268 1627.475059,2388.298205 1619.739129,2383.912725 1616.532108,2380.056711 1611.840650,2381.912349 1610.408645,2382.328872 1604.589657,2383.827386 1562.650537,2406.693267 1539.467220,2419.338757"/>
    <poly id="110310945" type="water" color="181,209,209" fill="1" layer="-4.00" shape="1051.509930,1929.397145 1049.307954,1929.194368 1047.239109,1928.426903 1045.429427,1927.151699 1044.021451,1925.459201 1043.098358,1923.461380 1042.726182,1921.292215 1042.928611,1919.096304 1043.695298,1917.040061 1044.974184,1915.245016 1046.679430,1913.832311 1048.691418,1912.922705 1050.866212,1912.547860 1053.068067,1912.761739 1055.137043,1913.518105 1056.929837,1914.793118 1058.337813,1916.485618 1059.260903,1918.483441 1059.633074,1920.652607 1059.430767,1922.837416 1058.663949,1924.904759 1057.385061,1926.699802 1055.688388,1928.101500 1053.684720,1929.022302 1051.509930,1929.397145"/>
    <poly id="155075464" type="building" color="255,230,230" fill="1" layer="-1.00" shape="986.529706,1785.060519 1001.055126,1808.851586 994.973413,1812.623525 999.483711,1819.258553 1001.665497,1818.273156 1008.694119,1829.955091 1007.211969,1831.059491 1012.945687,1840.017733 1016.301561,1838.279694 1017.793328,1840.772495 1042.926686,1823.839999 1041.732084,1821.950100 1044.020660,1820.488543 1033.995620,1804.953234 1011.291692,1768.856417 986.247655,1784.613216 986.529706,1785.060519"/>
    <poly id="158413988" type="building" color="255,230,230" fill="1" layer="-1.00" shape="1807.750172,2353.269733 1804.206902,2355.149583 1787.866812,2363.843072 1777.279384,2369.472042 1755.841407,2380.849120 1745.237013,2386.489041 1728.905507,2395.182755 1725.370721,2397.062740 1691.067820,2415.330695 1688.663903,2410.673431 1687.837775,2409.076316 1691.167654,2376.563079 1694.915843,2339.991265 1698.458964,2338.122464 1714.823565,2329.495675 1725.444392,2323.900307 1746.863547,2312.700557 1757.451286,2307.049342 1773.774701,2298.344490 1777.335518,2296.409316 1779.202959,2299.983519 1786.759962,2314.037093 1798.325447,2335.675229 1805.856787,2349.750734 1807.750172,2353.269733"/>
    <poly id="160947235" type="amenity" color="237,199,199" fill="1" layer="-1.00" shape="1618.155041,2068.448829 1612.685852,2069.618300 1600.614666,2072.055254 1599.599012,2067.103122 1583.718192,2070.340085 1582.758321,2065.677252 1579.492183,2066.217034 1578.756095,2061.923144 1578.011563,2057.629157 1581.092184,2057.065038 1580.100445,2052.235307 1584.484685,2051.408614 1596.633811,2048.805996 1595.583480,2043.931180 1608.409829,2041.192036 1609.724780,2047.291132 1618.538176,2045.405155 1619.500580,2049.845979 1625.664007,2048.529064 1627.628475,2057.633214 1624.690637,2058.265568 1621.024801,2059.044985 1622.107614,2064.031200 1617.417212,2065.043087 1618.155041,2068.448829"/>
    <poly id="160947235#1" type="building" color="255,230,230" fill="1" layer="-1.00" shape="1618.155041,2068.448829 1612.685852,2069.618300 1600.614666,2072.055254 1599.599012,2067.103122 1583.718192,2070.340085 1582.758321,2065.677252 1579.492183,2066.217034 1578.756095,2061.923144 1578.011563,2057.629157 1581.092184,2057.065038 1580.100445,2052.235307 1584.484685,2051.408614 1596.633811,2048.805996 1595.583480,2043.931180 1608.409829,2041.192036 1609.724780,2047.291132 1618.538176,2045.405155 1619.500580,2049.845979 1625.664007,2048.529064 1627.628475,2057.633214 1624.690637,2058.265568 1621.024801,2059.044985 1622.107614,2064.031200 1617.417212,2065.043087 1618.155041,2068.448829"/>
    <poly id="160947243" type="building" color="255,230,230" fill="1" layer="-1.00" shape="1648.224938,2076.899135 1635.138392,2079.501992 1629.704134,2080.571932 1629.166805,2077.357230 1626.256199,2063.867952 1630.641714,2062.930280 1629.414949,2057.242973 1641.267766,2054.703634 1643.713028,2054.309869 1648.224938,2076.899135"/>
    <poly id="160960921" type="shop" color="237,199,255" fill="1" layer="-1.00" shape="1713.165171,2334.905547 1720.645751,2349.002581 1707.815984,2355.749362 1700.335259,2341.663442 1713.165171,2334.905547"/>
    <poly id="171562481" type="tourism" color="207,245,201" fill="1" layer="-2.00" shape="651.125579,1827.370669 637.758592,1856.139783 637.532223,1856.736725 637.390551,1857.312426 637.368238,1857.789563 637.422936,1858.178759 637.554516,1858.491113 637.863054,1858.838784 638.382453,1859.211056 639.096076,1859.585534 674.552703,1875.020767 675.141674,1875.216198 675.360600,1875.274198 675.487142,1875.286738 675.622506,1875.266073 675.758880,1875.156602 675.810683,1875.057272 675.846733,1874.857843 675.857701,1874.635926 675.811072,1874.280128 656.072599,1826.072432 651.125579,1827.370669"/>
    <poly id="187526597" type="leisure" color="207,245,201" fill="1" layer="-2.00" shape="351.344649,1811.924176 365.867758,1809.990349 360.573484,1770.362497 346.050299,1772.296336 351.344649,1811.924176"/>
    <poly id="187526597#1" type="sport" color="79,230,125" fill="1" layer="-2.00" shape="351.344649,1811.924176 365.867758,1809.990349 360.573484,1770.362497 346.050299,1772.296336 351.344649,1811.924176"/>
    <poly id="197063186" type="leisure" color="207,245,201" fill="1" layer="-2.00" shape="329.397253,1817.637511 331.781262,1817.431356 334.050818,1816.890843 335.656244,1815.332521 336.916700,1813.659272 337.391937,1811.966031 337.300255,1810.366290 346.645723,1809.217566 347.525722,1817.276555 378.936891,1812.647453 380.768335,1826.179459 375.376869,1824.219928 368.391220,1825.062279 321.352294,1830.735737 329.397253,1817.637511"/>
    <poly id="197064614" type="tourism" color="207,245,201" fill="1" layer="-2.00" shape="271.285777,1836.774915 317.335097,1831.223165 321.352294,1830.735737 368.391220,1825.062279 375.376869,1824.219928 380.768335,1826.179459 378.936891,1812.647453 376.937115,1796.826508 372.234751,1797.406065 371.916519,1793.439010 366.756008,1794.202117 361.890962,1761.418021 341.024604,1764.134898 327.111815,1765.864746 322.579082,1766.379642 287.538579,1770.790287 263.746924,1773.785140 271.285777,1836.774915"/>
    <poly id="220892650" type="parking" color="184,184,179" fill="1" layer="-1.00" shape="1185.816014,2848.180141 1158.959305,2862.483382 1165.772309,2875.184451 1192.637557,2860.870231 1185.816014,2848.180141"/>
    <poly id="225016979" type="amenity" color="237,199,199" fill="1" layer="-1.00" shape="586.381755,2259.395663 585.181668,2265.421587 583.310457,2274.770525 586.381755,2259.395663"/>
    <poly id="226241507" type="leisure" color="207,245,201" fill="1" layer="-2.00" shape="1802.330403,2351.630780 1794.798931,2337.566379 1782.010655,2344.369023 1789.550715,2358.422407 1802.330403,2351.630780"/>
    <poly id="22819463" type="tourism" color="207,245,201" fill="1" layer="-2.00" shape="1623.995193,2372.182262 1676.166640,2343.017377 1670.862367,2370.978221 1671.232205,2387.280454 1672.970332,2415.311214 1646.479195,2388.794292 1623.995193,2372.182262"/>
    <poly id="22899302" type="tourism" color="207,245,201" fill="1" layer="-2.00" shape="1126.213351,1795.426211 883.765387,1948.566577 953.564960,2063.581054 1196.909617,1909.387455 1126.213351,1795.426211"/>
    <poly id="22901074" type="tourism" color="207,245,201" fill="1" layer="-2.00" shape="2054.461983,2667.110834 1948.650525,2724.785852 1976.291905,2775.086987 2082.094442,2717.412269 2054.461983,2667.110834"/>
    <poly id="22961817" type="tourism" color="207,245,201" fill="1" layer="-2.00" shape="589.698195,2840.274304 598.334182,2823.419457 607.485391,2805.815528 583.218904,2805.539856 557.474811,2805.247484 575.101374,2824.332378 589.698195,2840.274304"/>
    <poly id="22961821" type="tourism" color="207,245,201" fill="1" layer="-2.00" shape="375.748242,2803.019657 381.764410,2857.843490 443.406977,2859.519242 462.722054,2860.038056 462.703915,2848.236291 462.625093,2805.303480 444.584457,2804.832428 444.294349,2804.351747 375.748242,2803.019657"/>
    <poly id="238142698" type="parking" color="184,184,179" fill="1" layer="-1.00" shape="1338.024528,2866.953687 1344.851826,2863.645777 1332.615104,2840.857128 1329.988991,2835.686734 1318.257306,2813.769869 1304.628033,2821.118780 1317.641258,2845.426168 1324.532121,2841.730391 1338.024528,2866.953687"/>
    <poly id="239977366" type="landuse" color="194,194,130" fill="1" layer="-3.00" shape="585.743684,1327.865766 593.300195,1340.019549 625.367042,1320.244509 637.933431,1340.459866 657.267196,1328.533832 621.898648,1271.644510 604.444547,1282.415160 619.690307,1306.935219 585.743684,1327.865766"/>
    <poly id="239988106" type="tourism" color="207,245,201" fill="1" layer="-2.00" shape="487.640160,1316.749596 462.929444,1318.723136 450.235655,1199.420436 454.772518,1198.572593 487.640160,1316.749596"/>
    <poly id="239988114" type="tourism" color="207,245,201" fill="1" layer="-2.00" shape="669.139513,1805.138030 679.018993,1828.342733 692.545660,1805.603953 672.700957,1797.939934 669.139513,1805.138030"/>
    <poly id="239988118" type="tourism" color="207,245,201" fill="1" layer="-2.00" shape="562.363984,1475.247232 572.620581,1471.999724 554.381069,1444.115139 549.423071,1439.662436 562.363984,1475.247232"/>
    <poly id="239988120" type="tourism" color="207,245,201" fill="1" layer="-2.00" shape="848.595736,2344.656167 861.871125,2315.775347 873.449581,2290.561118 887.422568,2296.815436 899.131283,2316.488653 894.712303,2318.902954 890.649892,2326.339486 888.428919,2330.777228 879.174086,2349.956152 871.030612,2348.686520 848.595736,2344.656167"/>
    <poly id="240073954" type="parking" color="184,184,179" fill="1" layer="-1.00" shape="1432.669613,2752.953958 1423.238972,2757.930557 1437.060291,2783.912755 1442.540226,2781.022456 1446.490909,2778.936174 1432.669613,2752.953958"/>
    <poly id="240453791" type="parking" color="184,184,179" fill="1" layer="-1.00" shape="1525.577541,2680.901609 1550.435798,2667.198425 1538.008746,2644.829133 1516.915320,2656.455080 1513.150312,2658.543459 1525.577541,2680.901609"/>
    <poly id="241822151" type="building" color="255,230,230" fill="1" layer="-1.00" shape="1946.323498,1661.137505 1939.371481,1664.887541 1943.820249,1673.132266 1947.640654,1680.204016 1949.823830,1684.237088 1950.625936,1685.722932 1956.269120,1682.679444 1953.862933,1678.210812 1953.047378,1677.890541 1950.930606,1673.958153 1952.732297,1672.990850 1946.323498,1661.137505"/>
    <poly id="241822153" type="building" color="255,230,230" fill="1" layer="-1.00" shape="1905.527903,1620.288345 1901.641531,1613.071530 1898.505673,1614.745101 1894.494495,1616.885972 1889.905487,1619.331043 1886.166340,1621.319625 1881.466787,1623.830040 1868.923657,1630.502162 1872.792905,1637.740967 1877.220421,1635.382841 1882.744232,1632.437840 1885.812008,1630.807887 1890.638999,1628.232332 1893.893845,1626.493517 1899.120308,1623.700530 1903.173836,1621.549048 1905.527903,1620.288345"/>
    <poly id="241822156" type="building" color="255,230,230" fill="1" layer="-1.00" shape="1886.401037,1611.952108 1887.109896,1610.539205 1890.288234,1608.843915 1891.771966,1609.083066 1894.644370,1607.550783 1897.559256,1605.996787 1893.772926,1598.892152 1861.471110,1616.127776 1865.265905,1623.232492 1877.630679,1616.647124 1882.330363,1614.125606 1886.061068,1612.136925 1886.401037,1611.952108"/>
    <poly id="241822157" type="building" color="255,230,230" fill="1" layer="-1.00" shape="1955.916579,1566.846506 1949.092425,1570.486988 1951.134378,1574.318591 1955.416727,1582.350459 1956.725436,1581.655022 1957.287646,1582.705113 1956.301892,1583.226642 1958.029722,1586.466207 1959.898039,1589.973846 1963.280360,1588.169919 1961.734477,1585.265517 1964.853472,1583.591778 1955.916579,1566.846506"/>
    <poly id="241822159" type="building" color="255,230,230" fill="1" layer="-1.00" shape="1947.640654,1680.204016 1946.008885,1681.084463 1942.188479,1674.012714 1943.820249,1673.132266 1939.371481,1664.887541 1932.878435,1668.387528 1937.988701,1677.861118 1939.306092,1677.143575 1943.415917,1684.751566 1944.648057,1687.030624 1949.823830,1684.237088 1947.640654,1680.204016"/>
    <poly id="241822162" type="building" color="255,230,230" fill="1" layer="-1.00" shape="1922.634873,1688.775055 1925.175988,1687.405495 1928.185977,1692.980197 1943.415917,1684.751566 1939.306092,1677.143575 1937.988701,1677.861118 1930.450302,1681.926359 1922.605979,1686.154611 1920.557733,1687.263405 1916.163884,1689.632995 1908.914295,1693.557261 1906.296799,1694.959252 1911.671805,1704.913271 1926.901701,1696.684606 1922.634873,1688.775055"/>
    <poly id="241822164" type="building" color="255,230,230" fill="1" layer="-1.00" shape="1908.914295,1693.557261 1907.376219,1690.708470 1908.868138,1688.771696 1912.369653,1686.880305 1914.625810,1686.784203 1916.163884,1689.632995 1920.557733,1687.263405 1915.447324,1677.800927 1899.817939,1686.247052 1904.928362,1695.709519 1906.296799,1694.959252 1908.914295,1693.557261"/>
    <poly id="241822165" type="building" color="255,230,230" fill="1" layer="-1.00" shape="1976.711265,1702.166523 1975.818930,1702.644718 1973.412634,1698.187180 1974.305098,1697.697884 1972.800058,1694.916074 1971.577118,1694.035990 1966.384253,1684.405990 1961.336041,1687.123271 1966.876416,1697.378999 1966.437652,1698.806115 1972.267426,1709.598091 1978.819954,1706.065519 1976.711265,1702.166523"/>
    <poly id="241822167" type="building" color="255,230,230" fill="1" layer="-1.00" shape="2013.251872,1592.854574 2012.376539,1593.321860 2010.822231,1590.417350 2011.697564,1589.950064 2009.275129,1585.425716 2007.261006,1586.501575 2007.054371,1586.110613 2007.200511,1585.157514 2005.133768,1581.281200 1999.839290,1584.106635 2009.073797,1601.399407 2015.881065,1597.758785 2013.251872,1592.854574"/>
    <poly id="241822169" type="building" color="255,230,230" fill="1" layer="-1.00" shape="1929.377096,1581.672555 1922.663521,1585.247723 1925.540615,1590.632152 1926.342608,1592.129093 1929.608026,1598.261848 1930.815107,1600.518409 1937.528673,1596.943248 1933.998532,1590.330043 1932.766216,1590.993058 1931.674929,1588.948773 1932.907246,1588.285758 1931.146394,1584.979205 1929.377096,1581.672555"/>
    <poly id="241822171" type="building" color="255,230,230" fill="1" layer="-1.00" shape="1966.437652,1698.806115 1965.091747,1698.335393 1960.287452,1689.431523 1955.485681,1692.018426 1960.289851,1700.933393 1959.978529,1702.295367 1961.310076,1704.742107 1962.040934,1704.350864 1964.629304,1709.132462 1963.889873,1709.534709 1965.808309,1713.087338 1972.267426,1709.598091 1966.437652,1698.806115"/>
    <poly id="241822173" type="building" color="255,230,230" fill="1" layer="-1.00" shape="2028.472777,1573.002040 2026.888985,1572.650684 2025.946651,1570.874557 2027.025947,1570.298606 2024.413640,1565.394587 2017.767818,1568.948249 2019.735014,1572.667987 2020.371682,1573.852168 2021.485012,1573.254406 2022.427346,1575.030533 2021.810197,1576.544402 2029.251104,1590.441429 2035.896657,1586.909978 2028.472777,1573.002040"/>
    <poly id="241822174" type="building" color="255,230,230" fill="1" layer="-1.00" shape="1989.596611,1661.459294 1988.440817,1662.078775 1986.605031,1658.682524 1987.297913,1657.191730 1979.698600,1643.115282 1972.772011,1646.854478 1980.371333,1660.930920 1982.092147,1661.117315 1983.902844,1665.223813 1983.265513,1665.560624 1984.092436,1667.091166 1990.713078,1663.514981 1989.596611,1661.459294"/>
    <poly id="241822176" type="building" color="255,230,230" fill="1" layer="-1.00" shape="1974.133593,1568.400100 1970.853111,1570.160789 1969.356743,1567.356876 1972.637098,1565.607287 1969.264222,1559.273434 1968.726834,1558.268037 1961.970737,1561.864885 1962.698259,1563.227744 1968.708559,1574.488086 1970.748143,1573.401409 1975.485330,1582.271201 1980.193516,1579.749842 1978.382783,1576.376089 1974.133593,1568.400100"/>
    <poly id="241822178" type="building" color="255,230,230" fill="1" layer="-1.00" shape="1914.573071,1586.642095 1908.156870,1590.065276 1909.173695,1591.975472 1911.901990,1597.080626 1914.476913,1595.711452 1915.654968,1596.091410 1919.598529,1603.475425 1919.321502,1604.793387 1916.746582,1606.162559 1917.002866,1606.642908 1919.780539,1611.859656 1926.205300,1608.425482 1922.757683,1601.979766 1919.467439,1595.802319 1918.665445,1594.305379 1914.573071,1586.642095"/>
    <poly id="241822179" type="building" color="255,230,230" fill="1" layer="-1.00" shape="2009.386804,1681.816008 2007.568090,1682.794202 2006.110864,1682.455414 2005.391422,1681.125949 2006.317797,1680.625946 1999.810187,1668.560470 1993.376483,1672.038885 2000.041347,1684.383725 2000.729602,1684.025300 2001.291926,1685.064294 2001.032417,1686.326945 1999.171225,1687.326855 2002.404297,1693.326047 2012.628316,1687.815301 2009.386804,1681.816008"/>
    <poly id="241822181" type="building" color="255,230,230" fill="1" layer="-1.00" shape="1994.768404,1590.975843 1993.505135,1590.661501 1992.463636,1588.695497 1993.313505,1588.239017 1990.833226,1583.602986 1984.170418,1587.167584 1986.410925,1591.356758 1986.650700,1591.803612 1987.602548,1591.292798 1988.644175,1593.247701 1988.105729,1594.529336 1992.569969,1602.896392 1995.612315,1608.593619 2002.274981,1605.040132 1994.768404,1590.975843"/>
    <poly id="241822183" type="building" color="255,230,230" fill="1" layer="-1.00" shape="1999.171225,1687.326855 1997.258980,1688.359483 1996.014155,1687.912127 1995.294841,1686.571563 1996.289156,1686.039036 1989.078595,1672.677603 1982.602420,1676.177741 1990.003374,1689.874431 1990.861805,1689.406948 1991.399308,1690.401246 1991.046268,1691.718328 1989.151043,1692.740053 1992.384121,1698.739240 2002.404297,1693.326047 1999.171225,1687.326855"/>
    <poly id="241822185" type="building" color="255,230,230" fill="1" layer="-1.00" shape="1999.699644,1552.308425 1998.892251,1552.743190 1996.354258,1547.984368 1997.161651,1547.549603 1995.872054,1545.125545 1995.309846,1544.075452 1988.791461,1547.563998 1990.643269,1551.038147 1991.561214,1550.538044 1994.099209,1555.296865 1993.181392,1555.785867 1994.661121,1558.567388 1995.774053,1558.735667 2000.982327,1568.499087 2005.945415,1565.847461 2000.695690,1556.016945 2000.857196,1554.464507 1999.699644,1552.308425"/>
    <poly id="241822187" type="building" color="255,230,230" fill="1" layer="-1.00" shape="1983.510365,1698.492473 1982.881482,1698.829380 1980.466744,1694.371743 1981.104200,1694.023832 1979.723270,1691.465496 1978.655913,1691.009089 1973.578718,1681.602463 1968.394361,1684.406985 1973.140945,1693.188070 1972.800058,1694.916074 1974.305098,1697.697884 1975.180415,1697.230594 1977.586711,1701.688133 1976.711265,1702.166523 1978.819954,1706.065519 1985.619052,1702.391470 1983.510365,1698.492473"/>
    <poly id="241822189" type="building" color="255,230,230" fill="1" layer="-1.00" shape="1970.607788,1658.742122 1969.316110,1659.426651 1968.480866,1657.884912 1969.764229,1657.189185 1966.125902,1650.441487 1959.709089,1653.920127 1963.355993,1660.656818 1964.775367,1659.884945 1965.619056,1661.426781 1964.191237,1662.198556 1968.358878,1669.918250 1969.776191,1670.056732 1972.273469,1674.681851 1977.644773,1671.779569 1976.495422,1669.645790 1975.313538,1669.598841 1974.255029,1667.643745 1974.775425,1666.461820 1970.607788,1658.742122"/>
    <poly id="241822190" type="building" color="255,230,230" fill="1" layer="-1.00" shape="1972.904545,1614.881775 1971.589970,1614.622355 1969.919857,1611.505576 1970.457274,1610.312745 1969.572765,1608.648314 1968.451907,1608.435539 1963.103005,1598.415169 1957.519509,1601.403831 1960.313789,1606.642990 1961.257059,1606.143176 1963.819875,1610.946682 1962.885050,1611.446593 1964.315262,1614.127618 1965.638795,1614.342731 1967.077321,1617.034954 1966.530820,1618.283192 1968.953141,1622.818626 1975.318675,1619.394913 1972.904545,1614.881775"/>
    <poly id="241822192" type="building" color="255,230,230" fill="1" layer="-1.00" shape="2029.449486,1542.548979 2028.340398,1542.047675 2026.835729,1539.232552 2027.184294,1538.303996 2024.943921,1534.103709 2022.422571,1529.367274 2015.972233,1532.812174 2016.633599,1534.052151 2020.734090,1541.737791 2021.634748,1542.003541 2023.139290,1544.829764 2022.999156,1545.993873 2027.099376,1553.701718 2028.968922,1552.713012 2029.456659,1553.629022 2032.380168,1552.064075 2031.900877,1551.148162 2033.566592,1550.257022 2030.689686,1544.861450 2029.449486,1542.548979"/>
    <poly id="241822194" type="building" color="255,230,230" fill="1" layer="-1.00" shape="1992.569969,1602.896392 1991.372595,1602.727139 1988.321926,1597.018717 1987.438151,1597.485908 1986.751964,1596.201238 1987.635739,1595.734047 1986.164333,1592.963725 1986.410925,1591.356758 1984.170418,1587.167584 1983.616657,1586.117588 1976.766915,1589.779954 1979.569759,1595.008117 1981.277787,1595.571839 1982.741134,1598.308760 1983.361580,1597.971755 1985.461469,1601.903956 1985.130441,1602.777206 1986.486052,1605.335250 1985.737255,1606.547844 1988.787922,1612.256266 1995.612315,1608.593619 1992.569969,1602.896392"/>
    <poly id="241822195" type="building" color="255,230,230" fill="1" layer="-1.00" shape="1880.482842,1621.997941 1885.190841,1619.487624 1886.166340,1621.319625 1889.905487,1619.331043 1889.525089,1618.627221 1894.114097,1616.182150 1894.494495,1616.885972 1898.505673,1614.745101 1894.644370,1607.550783 1891.771966,1609.083066 1890.650207,1609.680751 1890.914682,1610.183397 1886.325671,1612.628471 1886.061068,1612.136925 1882.330363,1614.125606 1883.248158,1615.834819 1878.540157,1618.345138 1877.630679,1616.647124 1865.265905,1623.232492 1865.078968,1623.330256 1868.923657,1630.502162 1881.466787,1623.830040 1880.482842,1621.997941"/>
    <poly id="241822197" type="building" color="255,230,230" fill="1" layer="-1.00" shape="1926.342608,1592.129093 1924.770450,1592.965824 1923.976901,1591.468981 1925.540615,1590.632152 1922.663521,1585.247723 1921.456691,1582.968962 1914.573071,1586.642095 1918.665445,1594.305379 1920.322692,1593.414117 1921.124685,1594.911058 1919.467439,1595.802319 1922.757683,1601.979766 1925.477193,1600.523446 1925.840955,1601.204874 1924.166820,1602.095940 1928.027842,1609.312475 1933.050246,1606.639281 1929.197800,1599.411740 1927.506646,1600.313711 1927.126507,1599.587686 1929.608026,1598.261848 1926.342608,1592.129093"/>
    <poly id="241822199" type="building" color="255,230,230" fill="1" layer="-1.00" shape="1944.318241,1594.101713 1942.815577,1593.307224 1941.682837,1591.195847 1940.570036,1591.016476 1939.586357,1589.162168 1939.930307,1587.900490 1937.557473,1583.465556 1937.605091,1581.534329 1934.629096,1575.937813 1928.161823,1579.393695 1929.377096,1581.672555 1931.146394,1584.979205 1932.721864,1586.052085 1933.771823,1588.018178 1934.874643,1588.330659 1936.941548,1592.195852 1936.847231,1593.782373 1937.971527,1595.893652 1937.859424,1597.557683 1940.521419,1602.551061 1946.980234,1599.095094 1944.822491,1595.051215 1944.318241,1594.101713"/>
    <poly id="241822201" type="building" color="255,230,230" fill="1" layer="-1.00" shape="1951.748600,1591.356395 1950.155604,1590.338819 1948.915644,1588.004160 1947.700343,1588.656267 1945.848654,1585.171028 1947.055382,1584.529924 1944.509051,1579.759921 1944.531337,1577.828402 1941.555217,1572.242984 1934.629096,1575.937813 1937.605091,1581.534329 1939.350483,1582.520354 1941.888499,1587.279156 1942.746682,1586.833869 1944.598500,1590.308007 1943.748634,1590.764492 1944.988724,1593.088050 1944.822491,1595.051215 1946.980234,1599.095094 1947.294350,1599.687132 1954.220583,1595.981214 1953.832001,1595.255090 1951.748600,1591.356395"/>
    <poly id="241822202" type="building" color="255,230,230" fill="1" layer="-1.00" shape="1958.029722,1586.466207 1956.185932,1585.956436 1954.921023,1583.588181 1954.129383,1583.390310 1951.880539,1579.189947 1952.068897,1578.237335 1950.770846,1575.813188 1951.134378,1574.318591 1949.092425,1570.486988 1948.149945,1568.721972 1941.555217,1572.242984 1944.531337,1577.828402 1945.867284,1578.432230 1948.661581,1583.671385 1949.570818,1583.193381 1950.926701,1585.729217 1950.017464,1586.207221 1951.282375,1588.575475 1951.112179,1590.150018 1951.748600,1591.356395 1953.832001,1595.255090 1960.749669,1591.560181 1959.898039,1589.973846 1958.029722,1586.466207"/>
    <poly id="241822204" type="building" color="255,230,230" fill="1" layer="-1.00" shape="2070.074590,1650.032063 2068.602138,1649.548758 2067.097122,1646.766928 2068.032079,1646.255929 2066.535507,1643.474197 2065.184189,1644.202429 2062.819124,1639.834155 2063.369596,1638.974546 2062.330046,1636.842021 2062.789529,1636.547572 2061.259431,1633.743249 2055.268132,1636.938067 2058.567587,1643.037970 2059.255977,1642.668449 2061.240663,1646.332891 2059.931827,1647.039410 2061.593834,1650.122810 2062.469163,1649.655531 2063.808747,1652.135689 2063.470914,1653.597272 2066.290434,1658.836767 2072.894106,1655.271560 2070.074590,1650.032063"/>
    <poly id="241822206" type="building" color="255,230,230" fill="1" layer="-1.00" shape="1880.897987,1642.397397 1880.525906,1641.704773 1885.497474,1639.042064 1886.753190,1639.278586 1890.016475,1637.539867 1889.247619,1636.098823 1893.156680,1634.023384 1893.917218,1635.453231 1897.291058,1633.649177 1897.574860,1632.475620 1902.427317,1629.889264 1902.848913,1630.682380 1906.902439,1628.530899 1903.173836,1621.549048 1899.120308,1623.700530 1899.533844,1624.460246 1895.123204,1626.818554 1893.893845,1626.493517 1890.638999,1628.232332 1891.258920,1629.405207 1886.431930,1631.980762 1885.812008,1630.807887 1882.744232,1632.437840 1882.520953,1633.489971 1877.608880,1636.120062 1877.220421,1635.382841 1872.792905,1637.740967 1876.521271,1644.745004 1876.818759,1644.581901 1880.897987,1642.397397"/>
    <poly id="241822208" type="building" color="255,230,230" fill="1" layer="-1.00" shape="1889.599666,1654.643491 1894.571101,1651.991889 1895.727905,1652.749073 1897.835398,1651.629853 1896.926057,1649.920736 1899.925887,1648.323312 1900.835228,1650.032429 1902.492460,1649.141163 1903.272078,1647.451523 1907.895238,1644.973548 1909.197524,1645.565880 1912.044456,1644.044412 1910.539766,1641.229313 1911.619041,1640.653346 1909.428154,1636.553585 1907.184641,1637.748948 1907.043119,1639.035166 1902.428529,1641.502139 1901.210433,1640.932983 1898.711916,1642.269737 1899.613197,1643.945454 1898.754768,1644.412948 1898.366183,1643.686826 1895.935737,1644.979957 1896.324322,1645.706078 1895.143071,1646.336382 1894.250361,1644.649662 1892.032316,1645.834221 1891.983305,1647.154813 1887.020185,1649.817615 1885.395204,1649.376996 1880.712686,1651.876505 1884.408282,1658.791352 1889.090797,1656.291845 1889.599666,1654.643491"/>
    <poly id="241822210" type="building" color="255,230,230" fill="1" layer="-1.00" shape="1954.908900,1709.797438 1923.471841,1726.776313 1921.576635,1727.798055 1925.413664,1734.892191 1958.745780,1716.902692 1954.908900,1709.797438"/>
    <poly id="241822211" type="building" color="255,230,230" fill="1" layer="-1.00" shape="2093.008038,1627.870711 2075.339268,1637.358711 2078.796593,1643.682490 2096.414940,1634.171712 2093.008038,1627.870711"/>
    <poly id="241822212" type="building" color="255,230,230" fill="1" layer="-1.00" shape="2038.260976,1526.996696 2024.943921,1534.103709 2027.184294,1538.303996 2027.763003,1539.387589 2041.080052,1532.280581 2038.260976,1526.996696"/>